pgym/pf_cases/case33bw.py
# CASE33BW, distribution
from numpy import array

def case():

    ## PYPOWER Case Format : Version 2
    ppc = {"version": "2"}

    ##-----  Power Flow Data  -----##
    ## system MVA base
    ppc["baseMVA"] = 100

    ## bus data
    # bus_i, type, Pd, Qd, Gs, Bs, area, Vm, Va, baseKV, zone, Vmax, Vmin
    ppc["bus"] = array([
        [1, 3, 0, 0, 0, 0, 1, 1, 0, 12.66, 1, 1, 1],
        [2, 1, 0.1, 0.06, 0, 0, 1, 1, 0, 12.66, 1, 1.1, 0.9],
        [3, 1, 0.09, 0.04, 0, 0, 1, 1, 0, 12.66, 1, 1.1, 0.9],
        [4, 1, 0.12, 0.08, 0, 0, 1, 1, 0, 12.66, 1, 1.1, 0.9],
        [5, 1, 0.06, 0.03, 0, 0, 1, 1, 0, 12.66, 1, 1.1, 0.9],
        [6, 1, 0.06, 0.02, 0, 0, 1, 1, 0, 12.66, 1, 1.1, 0.9],
        [7, 1, 0.2, 0.1, 0, 0, 1, 1, 0, 12.66, 1, 1.1, 0.9],
        [8, 1, 0.2, 0.1, 0, 0, 1, 1, 0, 12.66, 1, 1.1, 0.9],
        [9, 1, 0.06, 0.02, 0, 0, 1, 1, 0, 12.66, 1, 1.1, 0.9],
        [10, 1, 0.06, 0.02, 0, 0, 1, 1, 0, 12.66, 1, 1.1, 0.9],
        [11, 1, 0.045, 0.03, 0, 0, 1, 1, 0, 12.66, 1, 1.1, 0.9],
        [12, 1, 0.06, 0.035, 0, 0, 1, 1, 0, 12.66, 1, 1.1, 0.9],
        [13, 1, 0.06, 0.035, 0, 0, 1, 1, 0, 12.66, 1, 1.1, 0.9],
        [14, 1, 0.12, 0.08, 0, 0, 1, 1, 0, 12.66, 1, 1.1, 0.9],
        [15, 1, 0.06, 0.01, 0, 0, 1, 1, 0, 12.66, 1, 1.1, 0.9],
        [16, 1, 0.06, 0.02, 0, 0, 1, 1, 0, 12.66, 1, 1.1, 0.9],
        [17, 1, 0.06, 0.02, 0, 0, 1, 1, 0, 12.66, 1, 1.1, 0.9],
        [18, 1, 0.09, 0.04, 0, 0, 1, 1, 0, 12.66, 1, 1.1, 0.9],
        [19, 1, 0.09, 0.04, 0, 0, 1, 1, 0, 12.66, 1, 1.1, 0.9],
        [20, 1, 0.09, 0.04, 0, 0, 1, 1, 0, 12.66, 1, 1.1, 0.9],
        [21, 1, 0.09, 0.04, 0, 0, 1, 1, 0, 12.66, 1, 1.1, 0.9],
        [22, 1, 0.09, 0.04, 0, 0, 1, 1, 0, 12.66, 1, 1.1, 0.9],
        [23, 1, 0.09, 0.05, 0, 0, 1, 1, 0, 12.66, 1, 1.1, 0.9],
        [24, 1, 0.42, 0.2, 0, 0, 1, 1, 0, 12.66, 1, 1.1, 0.9],
        [25, 1, 0.42, 0.2, 0, 0, 1, 1, 0, 12.66, 1, 1.1, 0.9],
        [26, 1, 0.06, 0.025, 0, 0, 1, 1, 0, 12.66, 1, 1.1, 0.9],
        [27, 1, 0.06, 0.025, 0, 0, 1, 1, 0, 12.66, 1, 1.1, 0.9],
        [28, 1, 0.06, 0.02, 0, 0, 1, 1, 0, 12.66, 1, 1.1, 0.9],
        [29, 1, 0.12, 0.07, 0, 0, 1, 1, 0, 12.66, 1, 1.1, 0.9],
        [30, 1, 0.2, 0.6, 0, 0, 1, 1, 0, 12.66, 1, 1.1, 0.9],
        [31, 1, 0.15, 0.07, 0, 0, 1, 1, 0, 12.66, 1, 1.1, 0.9],
        [32, 1, 0.21, 0.1, 0, 0, 1, 1, 0, 12.66, 1, 1.1, 0.9],
        [33, 1, 0.06, 0.04, 0, 0, 1, 1, 0, 12.66, 1, 1.1, 0.9],
    ])

    ## generator data
    # bus, Pg, Qg, Qmax, Qmin, Vg, mBase, status, Pmax, Pmin, Pc1, Pc2, Qc1min, Qc1max, Qc2min, Qc2max, ramp_agc, ramp_10, ramp_30, ramp_q, apf
    ppc["gen"] = array([
        [1, 0, 0, 10, -10, 1, 100, 1, 10, 0, 0, 0, 0, 0, 0, 0, 0, 0, 0, 0, 0],
    ])

    ## branch data
    # fbus, tbus, r, x, b, rateA, rateB, rateC, ratio, angle, status, angmin, angmax
    ppc["branch"] = array([
        [1, 2, 0.0575259116, 0.0293244886, 0, 0, 0, 0, 0, 0, 1, -360, 360],
        [2, 3, 0.307595167, 0.15666764, 0, 0, 0, 0, 0, 0, 1, -360, 360],
        [3, 4, 0.228356656, 0.116299674, 0, 0, 0, 0, 0, 0, 1, -360, 360],
        [4, 5, 0.237777928, 0.121103899, 0, 0, 0, 0, 0, 0, 1, -360, 360],
        [5, 6, 0.510994811, 0.441115179, 0, 0, 0, 0, 0, 0, 1, -360, 360],
        [6, 7, 0.116798814, 0.386084969, 0, 0, 0, 0, 0, 0, 1, -360, 360],
        [7, 8, 0.44386045, 0.146684835, 0, 0, 0, 0, 0, 0, 1, -360, 360],
        [8, 9, 0.642643047, 0.461704714, 0, 0, 0, 0, 0, 0, 1, -360, 360],
        [9, 10, 0.651378001, 0.461704714, 0, 0, 0, 0, 0, 0, 1, -360, 360],
        [10, 11, 0.122663712, 0.0405551438, 0, 0, 0, 0, 0, 0, 1, -360, 360],
        [11, 12, 0.233597628, 0.0772419507, 0, 0, 0, 0, 0, 0, 1, -360, 360],
        [12, 13, 0.915922324, 0.720633708, 0, 0, 0, 0, 0, 0, 1, -360, 360],
        [13, 14, 0.337917936, 0.444796338, 0, 0, 0, 0, 0, 0, 1, -360, 360],
        [14, 15, 0.368739846, 0.328184702, 0, 0, 0, 0, 0, 0, 1, -360, 360],
        [15, 16, 0.465635443, 0.340039282, 0, 0, 0, 0, 0, 0, 1, -360, 360],
        [16, 17, 0.804239697, 1.07377542, 0, 0, 0, 0, 0, 0, 1, -360, 360],
        [17, 18, 0.456713311, 0.358133116, 0, 0, 0, 0, 0, 0, 1, -360, 360],
        [2, 19, 0.102323747, 0.0976443077, 0, 0, 0, 0, 0, 0, 1, -360, 360],
        [19, 20, 0.938508419, 0.845668336, 0, 0, 0, 0, 0, 0, 1, -360, 360],
        [20, 21, 0.255497406, 0.298485858, 0, 0, 0, 0, 0, 0, 1, -360, 360],
        [21, 22, 0.442300637, 0.584805173, 0, 0, 0, 0, 0, 0, 1, -360, 360],
        [3, 23, 0.28151509, 0.192356167, 0, 0, 0, 0, 0, 0, 1, -360, 360],
        [23, 24, 0.560284909, 0.442425422, 0, 0, 0, 0, 0, 0, 1, -360, 360],
        [24, 25, 0.559037059, 0.43743402, 0, 0, 0, 0, 0, 0, 1, -360, 360],
        [6, 26, 0.126656834, 0.0645138749, 0, 0, 0, 0, 0, 0, 1, -360, 360],
        [26, 27, 0.177319567, 0.0902819893, 0, 0, 0, 0, 0, 0, 1, -360, 360],
        [27, 28, 0.660736881, 0.582559042, 0, 0, 0, 0, 0, 0, 1, -360, 360],
        [28, 29, 0.501760717, 0.437122057, 0, 0, 0, 0, 0, 0, 1, -360, 360],
        [29, 30, 0.316642084, 0.161284687, 0, 0, 0, 0, 0, 0, 1, -360, 360],
        [30, 31, 0.607952801, 0.600840053, 0, 0, 0, 0, 0, 0, 1, -360, 360],
        [31, 32, 0.193728802, 0.225798562, 0, 0, 0, 0, 0, 0, 1, -360, 360],
        [32, 33, 0.212758523, 0.330805188, 0, 0, 0, 0, 0, 0, 1, -360, 360],
        [21, 8, 1.24785058, 1.24785058, 0, 0, 0, 0, 0, 0, 0, -360, 360],
        [9, 15, 1.24785058, 1.24785058, 0, 0, 0, 0, 0, 0, 0, -360, 360],
        [12, 22, 1.24785058, 1.24785058, 0, 0, 0, 0, 0, 0, 0, -360, 360],
        [18, 33, 0.311962644, 0.311962644, 0, 0, 0, 0, 0, 0, 0, -360, 360],
        [25, 29, 0.311962644, 0.311962644, 0, 0, 0, 0, 0, 0, 0, -360, 360],
    ])

    ##-----  OPF Data  -----##
    ## 1, startup, shutdown, n, x1, y1, ..., xn, yn
    ## 2, startup, shutdown, n, c(n-1), ..., c0
    ppc["gencost"] = array([
        [2, 0, 0, 3, 0, 20, 0],
    ])

    return ppc

def pf_case():
    ppc = case()

    from pypower.idx_bus import PD, QD, VM, VA, GS, BUS_TYPE, PQ, REF, VMAX, VMIN
    ppc["bus"][:, VMAX] = 1.05
    ppc["bus"][:, VMIN] = 0.95
    ppc["bus"][:, PD] *= 1.2
    ppc["bus"][:, QD] *= 1.2
    ## generator data
    # bus, Pg, Qg, Qmax, Qmin, Vg, mBase, status, Pmax, Pmin, Pc1, Pc2, Qc1min, Qc1max, Qc2min, Qc2max, ramp_agc, ramp_10, ramp_30, ramp_q, apf
    ppc["gen"] = array([
        [1, 0, 0, 10, -10, 1, 100, 1, 10, 0, 0, 0, 0, 0, 0, 0, 0, 0, 0, 0, 0],
        [22, 0.6, 0.6, 4, -4, 1, 100, 1, 10, 0, 0, 0, 0, 0, 0, 0, 0, 0, 0, 0, 0],
        [25, 0.6, 0.6, 4, -4, 1, 100, 1, 10, 0, 0, 0, 0, 0, 0, 0, 0, 0, 0, 0, 0],
        [18, 0.6, 0.6, 4, -4, 1, 100, 1, 10, 0, 0, 0, 0, 0, 0, 0, 0, 0, 0, 0, 0],
        [33, 0.6, 0.6, 4, -4, 1, 100, 1, 10, 0, 0, 0, 0, 0, 0, 0, 0, 0, 0, 0, 0],
    ])

    # gen_id, from 0
    ppc["controlled_gen"] = array([
        [1],
        [2],
        [3],
        [4],
    ])

    # 固定电容器
    ppc["cap_bus"] = array([18, 25, 33])
    ppc["cap_q"]   = array([10, 10, 10])

    ppc.pop('gencost')

    ppc["load_p"] = array([
        [0.19590032137490215,0.198648461574976,0.16198401085551553,0.1769507588221408,0.1508672025370697,0.18112487503607225,0.16158449636743275,0.15697892098339658,0.15218193289626028,0.17671253552302713,0.16794988198147923,0.17877865769122483,0.16320551221178312,0.1973489352910529,0.2074261505440902,0.21925665020231877,0.2459062931892704,0.24902034685973493,0.2507833481728078,0.27051346903632145,0.29904946328151927,0.29087324206099147,0.33606776449466763,0.35692761574754467,0.35925948798028956,0.3785021406509885,0.4099711187155093,0.43655766624961095,0.4707101830408831,0.4915292800146178,0.5418797327432164,0.5326618795691772,0.5660487906748679,0.5937431063052329,0.6449086837236409,0.6593251384338568,0.7002604245257896,0.7233588199118013,0.7513456779483263,0.7784651542546142,0.8266109265207954,0.8244393847252524,0.8394023602224316,0.8504633696262806,0.8630545795711453,0.8151144073447284,0.8200178772050766,0.7568183893719281,0.7591796049264569,0.7035066830359146,0.693981470875513,0.6538913127146639,0.6446040696220682,0.6119535416523315,0.629759793663206,0.6394425677263711,0.6705421754660823,0.692159829500676,0.7332149337438222,0.7717383700813122,0.7914917133177101,0.8508542285984754,0.8762977434380528,0.8917646566125703,0.9277414026338864,0.9313921303345174,0.9695530386863624,0.9980655473024352,0.9813760871136922,1.0,0.9759536632985123,0.9931578462314223,0.9615313910210191,0.9369062578375564,0.9278146309110206,0.8728145195747647,0.8713422683923363,0.7976314592798595,0.7841620629260145,0.7232578082851697,0.697904671760363,0.6620927254465575,0.5868066349872124,0.5558690996428556,0.5128631095518045,0.46986724864657003,0.4150001409598635,0.40797724428059917,0.35192165242233203,0.33734189488513494,0.30366628971318566,0.2636151622509874,0.2670304924185861,0.2364739264150809,0.24963769165980274,0.2360557659148955],
        [0.1011787058691696,0.11937136502646047,0.12406988323822613,0.14722428810699922,0.1673431167033555,0.14382063064995823,0.16622725372985994,0.1552439313402815,0.18337852366869853,0.17360322875664394,0.1836200993211902,0.1707496380669484,0.1720798500290174,0.1893928424849038,0.18760221441946437,0.21605641356038655,0.21413951347770774,0.21989326763253658,0.23408425828932705,0.20969197267722703,0.24019329124927774,0.25469933102589604,0.2853997518826739,0.2749030859191027,0.2917631781457709,0.3067885802469897,0.3259410135469798,0.38789870428889506,0.4032602361349862,0.43571330012002185,0.4442952749894608,0.4877188957113921,0.49859283293108253,0.5498175653235182,0.6053550493646008,0.6378520050851472,0.6536661100225544,0.7183197313252406,0.7267461087898422,0.7925137453976806,0.8243519476257223,0.8448365600739225,0.8566241797143258,0.8760245678943875,0.8502877326623565,0.8592756160258729,0.8260890318709946,0.7709239077497829,0.7509916405793937,0.7088512534696659,0.7121608086694348,0.6664881300414167,0.6515892500367064,0.6533729869968643,0.6488758028528373,0.6550202535355405,0.7062535546302756,0.7088560784363913,0.7546655691952275,0.7776449673516157,0.807765008708184,0.8735617799815075,0.9105285704603835,0.9397843082949159,0.9639075846746119,0.9806727982541823,0.9798593691528653,0.9812043594148324,1.0,0.9910540564478537,0.9773634716007703,0.9559391096035719,0.9561257108278933,0.8896527319841877,0.87606650762478,0.8000213626660948,0.7436511111106021,0.6895200272348937,0.6602871509684098,0.5931001342351099,0.5565838119031781,0.526068996001994,0.5093515276577796,0.480379048984181,0.4426081391967098,0.4212238603726448,0.4045019344147313,0.40191653114794634,0.3872095708739991,0.3805469514725023,0.3724591979190582,0.35151936156921676,0.3078762164077806,0.27873567724756204,0.2297816382282615,0.2051548826507451],
        [0.24072324256839822,0.24415455894085616,0.18697849588891152,0.15946262497193253,0.1788243669686607,0.13190507004129343,0.13997820647973672,0.102720410246752,0.1261120565741587,0.12918404733163302,0.10129133396574971,0.10783216047693153,0.11207709542789362,0.13572818929764383,0.12266149265290101,0.13181556032952244,0.15863353256380214,0.16911839907691167,0.2120692776842925,0.20693357826957393,0.24243328701279843,0.2878708243818427,0.30206181829411854,0.34199543598008203,0.3763028948701581,0.40022846561138853,0.43130041607669356,0.4773243091539639,0.5131700644336544,0.5241034052319435,0.5422845006885436,0.5870429469028009,0.6153499475655296,0.661019104311306,0.6813913860808009,0.7343292321670297,0.755171140093001,0.8068674469306368,0.8364851350200649,0.8406587560865156,0.8468505680419732,0.8735869853748703,0.8931533395302315,0.8698837861362834,0.8661670745655863,0.8345741117729193,0.8166894940008839,0.7841536776240305,0.745835863034252,0.7271147247665105,0.6924503539945912,0.6761221709488882,0.6733965539122005,0.6855411355894213,0.6795765069709421,0.7266665773122964,0.7511921573228066,0.7467399654632286,0.7897906003194008,0.8326208082536232,0.8500965665322634,0.8901496607699332,0.9329415273857896,0.9517925323315125,0.9666485886991669,0.9838073010298319,0.97033564642385,0.9809156479972245,0.995711801400958,1.0,0.9756123266999566,0.9496093155873117,0.9189387127138698,0.9245732955177239,0.8643812657657458,0.847616486697476,0.8184253358618625,0.7969836011012607,0.7192920875228577,0.691210892261494,0.6314836416027787,0.602692819105527,0.5725372713883842,0.5155271292245059,0.47182266201939915,0.42859339445148514,0.4119709130092957,0.3825133827948999,0.3495778778831722,0.3331530652413453,0.26610969656281963,0.273604327914611,0.2548711210231629,0.24252526715782707,0.2525151699537382,0.20962756915407826],
        [0.2764234887450503,0.23541317741429746,0.21291442696417398,0.17043360806177596,0.16402767242059282,0.1436202786674878,0.12096349548368127,0.1147832302863194,0.11935682354439908,0.0960321830309239,0.13271341389385413,0.13226750748945773,0.14505092753851234,0.14868836335407423,0.14390248056064914,0.17209836472489976,0.18861334060151305,0.20220599128858682,0.2071694744260398,0.2556878835937233,0.24561354378016761,0.28392679296357126,0.30437792205262915,0.31750841122597184,0.34798531818314754,0.32752258157208486,0.3785675177696062,0.3609280834249008,0.40340383496713766,0.4199514658931385,0.4495830855175156,0.46952054440783714,0.4915833689995405,0.516903259876075,0.5749126363797379,0.6290837847910573,0.6527064543081537,0.6941381870346209,0.737485154852143,0.7859646411502493,0.8360378732919218,0.867898179423409,0.9024184273392452,0.9083839105582155,0.9074694233470819,0.9239378835154074,0.8619306577688843,0.8384981717948047,0.8026753658986175,0.7439946846149064,0.6908887108819309,0.6626495446760439,0.6568754400878362,0.6626920177528264,0.6720670051907145,0.7201370543821134,0.7566274330445562,0.8072652070188089,0.8127134358191892,0.8933615411877491,0.9090168087896484,0.9597811456458702,0.9730773597251434,1.0,0.9971547220599448,0.9807604964452156,0.9818647727674128,0.9665090342848531,0.951628902733539,0.9288570032877419,0.917624463483418,0.901597563295377,0.857790799687513,0.8409157716717702,0.7943888818308182,0.7666497747712042,0.7316194423938537,0.7416179005616874,0.6692526208008,0.6470956105770883,0.6369835120727891,0.5856887232654923,0.5932966278610752,0.5594857390912329,0.5438645009680347,0.49759085093730876,0.4621807318425825,0.4463395070618261,0.43570284041476254,0.3897583956193371,0.34962221188114123,0.3459145188035173,0.2920710814813168,0.2424125092696018,0.21772987308275632,0.18322496136814526],
        [0.16224052224895558,0.15294594592033545,0.15176991557235806,0.1313607339666661,0.14368832914837937,0.1524766520768993,0.15337935761604765,0.1338248254061304,0.15411253173255074,0.15436839067993627,0.13027497261130264,0.1660161200292635,0.15115280282681956,0.1582500855633242,0.16262621410891034,0.17513261211843226,0.18582808720896976,0.18985461808586188,0.2171968132885996,0.21870388111266809,0.22223326017922013,0.23810923660390582,0.27256768155214667,0.2703633179925593,0.28454781516020106,0.2999292925983399,0.36066356696186835,0.3887942138487133,0.381418193893876,0.4216360992436792,0.447460525534896,0.48016581013876686,0.5531498156433428,0.5558753935832372,0.6403979347248345,0.6467493998950476,0.7299022967773396,0.7679314247353887,0.810812926348667,0.8593809537834123,0.9231099235282415,0.941347857410717,0.9851770449777982,0.9952949577675324,0.9956306900199942,1.0,0.9569383831007597,0.9321423506559093,0.8850129035676915,0.8098807141868294,0.8004683510054413,0.739148331811451,0.7431985687509521,0.6906059956885996,0.701210237025966,0.6981732238805834,0.7303360689627868,0.7671301000381685,0.7692889872129047,0.7904977282422654,0.8267256458370765,0.8753330641030033,0.8701984209988782,0.8967536702572191,0.9095119990485063,0.9546448607423942,0.9536736539079708,0.958706012337025,0.9812189635084596,0.9633370317975604,0.9746977126345153,0.9665521574359919,0.9214178724349904,0.9304615546442184,0.8639906857108547,0.8357347880642451,0.7943151586193966,0.7642904220602834,0.733311071297341,0.7000717058691709,0.6831066307237046,0.657260673787264,0.6036220880309271,0.600809298847558,0.5589018540764655,0.556327403551956,0.5319747881099518,0.5124089548124448,0.4984995943754633,0.4852111930148731,0.4272820186896995,0.4302528809401247,0.38455962890468914,0.3134302243353716,0.29358486164222514,0.21136193827961203],
        [0.11271289378169383,0.14117547096714578,0.12883490825402985,0.1723620453105605,0.15577766244477406,0.20576166320792255,0.20021391960850124,0.20445378117182705,0.1990023303513001,0.22842841104048686,0.20363169258287606,0.22798479017978768,0.2350992282200001,0.2271533915811404,0.21651864449455707,0.19832588586010227,0.21567505577939888,0.21571329905137665,0.20849097675466158,0.22115849667529247,0.2236249991725423,0.22260868015437155,0.24276377665282234,0.24625856169446708,0.26973929011288933,0.26491151411570624,0.31788078041554896,0.33396410749403665,0.345431021512288,0.3825033943973659,0.4145587459868524,0.4100685167611088,0.4645598730145005,0.5157868625421346,0.5546894084420083,0.5814828204268918,0.607864768699858,0.6751865813813203,0.7007065530503963,0.7557398158177672,0.828549896139494,0.8368658183404477,0.8725318270030462,0.8673436806249339,0.8875357742135241,0.8534385096464613,0.7974474086432647,0.7668845731278988,0.684512721287679,0.6415034876253309,0.5844786795202781,0.5627305792079581,0.5124828473123794,0.5157305583624974,0.5182243585602261,0.5484908120681558,0.57369484387615,0.6278430843497237,0.6447840505005386,0.7169946006283582,0.747554631947188,0.7935445050280989,0.8562257014492196,0.8995712589295188,0.9060107598977465,0.9545063718029422,0.947200770528499,0.9852209810425148,1.0,0.9788286705376771,0.9856920316065083,0.9927888067390994,0.9402676581560653,0.9080857287493178,0.8956253450599171,0.8478501093390262,0.8172745355706634,0.7745684419760144,0.7004536761788092,0.6563089757750739,0.6149160495351315,0.5773523558038809,0.5554109992958975,0.5088144779950664,0.4641969899744321,0.429484270215848,0.4298255641946743,0.37096799719266543,0.37039932903819817,0.35525169186899147,0.3216165446000404,0.2889346041643241,0.25675936018255874,0.24003632457713325,0.2293240073596002,0.20103803062632825],
        [0.1567551121972521,0.16410878620054495,0.21970175544360226,0.23258837469260651,0.24299418380659182,0.2242028223093376,0.24298598009761546,0.2348585453209708,0.2605142199815155,0.25186129950059194,0.25409258264575196,0.25107189347237896,0.23603987275676033,0.23792875774287706,0.21548391787355864,0.1858136344325894,0.18059248818522788,0.191912989733325,0.212149604144507,0.2173386523807872,0.2283088339521905,0.20233159520872107,0.21637298401613242,0.27067698578829213,0.2670326070474663,0.30180892009312377,0.34614016110488,0.3509631810500635,0.39261742436448677,0.4137730307545151,0.4621821594770335,0.4862117947363896,0.5086051532383041,0.5444784469076371,0.5781461236099964,0.6231051482644588,0.6628470325991133,0.704287598692674,0.7225820239537158,0.7514910062698992,0.7467977927699563,0.7701076165807396,0.7796377872664836,0.7907314052427726,0.765198115675688,0.7464549722631847,0.7221051586511527,0.7097546867953922,0.6672186062714163,0.614622099837243,0.5868713445559554,0.5779205009763947,0.5828570785547053,0.5799643953234785,0.5918435777422403,0.6143634887855298,0.6218047614983594,0.6653669577676007,0.7016297394224152,0.7481549442033052,0.7957261007375476,0.8048521903737956,0.8612443537707831,0.8881379062703472,0.9140322144867336,0.9475156752335954,0.9756412385304714,0.9543933022384767,0.9698618765344821,1.0,0.9706576242900876,0.979988671301587,0.9516152600292394,0.929948002192803,0.9169358189397601,0.8530167259940616,0.8476442996121215,0.7868889504174632,0.7448297622351467,0.7018308205444252,0.6628712881470298,0.6094079047586275,0.5605722903707641,0.5327822109127112,0.4914723999233508,0.4738099582987919,0.4313405379013282,0.4259863991545708,0.39497409940483713,0.34955175604112637,0.3182219586935997,0.30182760257952546,0.2654742715459571,0.22714225690751982,0.1739142643941649,0.13993623373952171],
        [0.11624056363870791,0.11094979974902736,0.08548757691232349,0.08378404711863145,0.07824745282892553,0.07975390230945799,0.0468195677769376,0.06437291431153323,0.0620956665924724,0.08785145405355878,0.06167926981143602,0.10755332757069629,0.11489235126886796,0.09558725404563492,0.1284571013671875,0.1553209209526196,0.17547073441551234,0.2034220331362817,0.2216739556369278,0.2257299906331762,0.259174678901456,0.29467934022153947,0.2998080879311103,0.3315047301147,0.3736065808158282,0.39700622257014473,0.4516937444990499,0.47201444005808957,0.49403428314540515,0.5463909092618182,0.5760388018431372,0.6150149821084115,0.6391349008319952,0.6507958838505706,0.6674443988501157,0.7241131609794688,0.7177730510962277,0.7538783941252891,0.7988806852564407,0.8184780503499834,0.8185543148179671,0.8281789706558568,0.8025286536086631,0.8153274565260736,0.801329519503831,0.7684811567410867,0.7264158522625189,0.6987400505581607,0.6694929678740429,0.640953880762065,0.6216376892362463,0.6104317261869286,0.5893607520576972,0.5998397553740478,0.6097078728583031,0.6430394995777861,0.6915117814395899,0.7552296722078964,0.7959702166731769,0.8459196457298883,0.8859904217432686,0.9234407134521827,0.9451618865648107,0.9769520961784078,0.9888355007134204,0.985503845938618,0.9897302182521606,0.9659697403286273,1.0,0.9539983841293262,0.9646013884823756,0.9494669002714853,0.9088549198949344,0.8760666418065446,0.8434847971089868,0.839112995638652,0.7934979014922399,0.7689897174496194,0.740557343002201,0.6710163067474462,0.6643254631506971,0.60453271910612,0.5613689788253126,0.5493851377564095,0.513970684430482,0.44526191248843566,0.42980609211291065,0.37490847130962573,0.36769343323057857,0.348255292787509,0.3190156698208504,0.2884185827374943,0.2716037238167093,0.26120476030036033,0.26349468124157877,0.27511947780449564],
        [0.10277984730498323,0.11755803872863105,0.15712627023893821,0.18936987880231276,0.20307871473774805,0.18195307297166,0.21150739299669483,0.22604482117839153,0.20279180269713157,0.22560035891290173,0.2300776263139906,0.2244224999425593,0.19192799297155702,0.18497819169687915,0.19033154553871004,0.19196060944947899,0.20615713844242806,0.19723083311540382,0.21388316864517315,0.20434541777709872,0.20416731420398915,0.22244964252918928,0.2615016641559449,0.2821576449119884,0.27018560756094717,0.3176332546233738,0.3204443022037649,0.3735650716971346,0.37139018066504254,0.4230817929080562,0.4298820898935922,0.5007917718183375,0.5229304837717735,0.5635480118222034,0.5869011660740479,0.6185072972906177,0.6602783058037155,0.6916020813610316,0.7230848727828684,0.7670361592049356,0.7700569996316395,0.7927807350370442,0.8209080440031753,0.8259001223553724,0.8166705241822931,0.8418796320375851,0.8235794224560121,0.7933804982547054,0.7884318821638799,0.7251426896353573,0.7315458007222203,0.690265428592288,0.6803207636333829,0.6668682338621759,0.6911640288268187,0.6697687935577392,0.7112204984265018,0.72005520756766,0.7147820967335408,0.7707293646534882,0.7892294070372692,0.8291966328080616,0.8514884396157958,0.8723598228627779,0.912010040627454,0.9140264571567177,0.9485169632777,0.9568159262089613,1.0,0.9768538358396438,0.9697524038349479,0.9772821890831207,0.9705269678921444,0.9268836044701442,0.9185590315486285,0.8951943856091136,0.8471526792339205,0.8007696849891068,0.7718857583433191,0.7304762563296018,0.6867093663086244,0.6442732691519958,0.6103328655424582,0.5646357389322754,0.567029731652282,0.5619145374847634,0.5336278557427597,0.4917834018978898,0.46088447056852144,0.46270497304419217,0.4324413669407662,0.4091345260404857,0.3670780067544972,0.3090868141262299,0.23812301536706512,0.19478559216367386],
        [0.11757597854185461,0.1295735165010635,0.11540819204160359,0.1185939864630787,0.11228420247321716,0.12059499942943977,0.1088564308025365,0.14780468771865496,0.15332060741592554,0.17468236193639056,0.1594202759205524,0.17090184787817697,0.18219917660605434,0.2325478547948277,0.24225232495962565,0.23511446657168517,0.2690119241453137,0.2819581259956546,0.2900882855823039,0.3093073548932457,0.36045153095898813,0.3522176000298164,0.3962682871402042,0.3793469556814295,0.4130915799931757,0.4178701525090516,0.4311502001145456,0.4719530010009052,0.47299358133036556,0.5168805593259582,0.5356247752270886,0.5347433694117854,0.5866433599080959,0.5992984226881554,0.604544404553184,0.6444670674025227,0.6695991323911321,0.6787797916853604,0.7045590768058135,0.7261989916331946,0.7552434907805664,0.7800788773683612,0.7571001971274923,0.7836015428563834,0.7373145020517076,0.7402288525689319,0.6992386900758244,0.6784486997996592,0.6377942539603138,0.5917300430534944,0.5668632204054735,0.537673779154928,0.538136096633302,0.5261803404091487,0.5422348186981749,0.5557401337099749,0.602952796840108,0.629748477812226,0.6839842536577445,0.7125615232002525,0.7571059921912389,0.8104898048669288,0.8508769670397361,0.8807635072174439,0.9071601534999996,0.9302395790538363,0.9506749740596764,0.9751201804536959,0.990043335996235,1.0,0.9803754392902728,0.9789249584292973,0.9147672077605696,0.8814174168677575,0.8402876732003887,0.7967106627099079,0.7514169637888615,0.6739729024009091,0.6154703840921738,0.556408273051022,0.5434744664748437,0.4907606896065681,0.47177758557660454,0.46828061356776157,0.4133768243622384,0.4076657062460767,0.4238831324450197,0.4160688245367944,0.404840092183274,0.38325376168585384,0.38508412682576426,0.3400125461751406,0.3200001923899871,0.26144905417696773,0.2288827781572849,0.18357503777622447],
        [0.2617318299450487,0.26117616545787464,0.2525932209526455,0.2428636216003631,0.21362693360429413,0.20430670628705033,0.21789048771749886,0.19766495586653351,0.16407351468465123,0.17823799055065584,0.1644734661686942,0.18864162512138985,0.1422362698156745,0.16789225120958112,0.17340086581203684,0.15625543899432107,0.19129106023443462,0.19262640573264597,0.20386052988056008,0.1747869702825189,0.21315578310138283,0.2171438203738978,0.2609376229256824,0.2726900204041498,0.2923463994736175,0.2995241370673504,0.34706019056761667,0.381775089267611,0.42897339126681094,0.4469862043915357,0.5006615334305837,0.5387267549286489,0.564793263394411,0.5999702192068357,0.6413558703274295,0.7049970381316711,0.7122946572150225,0.7629829691934851,0.8082902178156044,0.8801963227151015,0.8984530031704341,0.9409542279192807,0.9584229074933509,0.9552529896594601,0.9537190738700829,0.9349078753770976,0.9117319971870186,0.8507837018661052,0.804242117316055,0.7321556104699979,0.729347217711148,0.6773851396734334,0.6706306289340639,0.635029854120086,0.6648841205200314,0.6827337507229504,0.7171591563850068,0.7802405536068424,0.8146807065388736,0.8475820387582486,0.8655064684176281,0.9389030872781257,0.962661876103312,0.9469232311865379,0.9508936532217711,0.9793821740689262,1.0,0.9955207869527791,0.974373140267922,0.9517942653275628,0.9400423851378593,0.9500800680105963,0.9144091486428909,0.8791291344549782,0.863657489856268,0.842503810139049,0.8114444650722369,0.8006530251402736,0.7930553975688474,0.7520906816430508,0.6934420558644679,0.6565217302096652,0.6331210467279773,0.6003031941068033,0.5814981962534633,0.5524520477643202,0.48915823816132503,0.46600465516348377,0.4444742190605401,0.39963470941374457,0.3632251346047898,0.30933299669096576,0.2945716954262399,0.29886641298186223,0.2488056977655906,0.2640375761777642],
        [0.26919488711912226,0.20958948472575983,0.15904127567610757,0.1365530433583999,0.08375572715380027,0.07983001494565635,0.05404173896506373,0.05383380103643274,0.05078907982239023,0.06604592241152024,0.07773799766403829,0.11648043981188168,0.10687413175417779,0.13772000423652,0.17675907717611783,0.20406206633034316,0.23018438181594084,0.24094005353796952,0.2803369928075627,0.2983941172645224,0.3291031281731982,0.3693087520825117,0.41105828348153994,0.4306340763001948,0.4734588132930662,0.4983762712988534,0.49178417075499375,0.5405317859032742,0.568235893393273,0.6086719746677268,0.595044379563479,0.6416306171522699,0.6533447469959925,0.6723766944912575,0.720066915060105,0.7533533166467062,0.779226790770969,0.7739439512839426,0.8141274873051556,0.8205421538789992,0.8460293475548335,0.8545954535562696,0.8586344724180484,0.8575558338770365,0.8377647156864106,0.8374073777586355,0.773973494537746,0.7530688845514611,0.6777978976749235,0.6581210488833608,0.5898650083783226,0.5762383581130628,0.538874745570695,0.5688282455098709,0.5844191223207461,0.5670840806573484,0.6343210662665983,0.6640040505963498,0.6874228765385054,0.7532376760472499,0.7704183432200932,0.815788355464012,0.8404454210496983,0.8979858178186617,0.9018497876751655,0.9461836884223065,0.9745017504870176,0.9944304636788698,0.9741268388347255,1.0,0.9915728633773269,0.9697368790714649,0.9468044366705924,0.8932509245393724,0.8739400773029391,0.8184430907139219,0.7883531238458671,0.7126227678223885,0.6705946364739229,0.6126715332198872,0.5829241448903533,0.5130191474855162,0.4663161368807425,0.45901030033238654,0.41347935951593906,0.3926468946005731,0.3439151843893142,0.35982486967398647,0.33612873812045274,0.306681882404894,0.2638292923043375,0.2622866332161166,0.27127820412155595,0.24290951270448544,0.2049624574457452,0.20055049699020386],
        [0.13347282672362293,0.13676839076839464,0.10712556304022204,0.13152504807938087,0.08964378968972206,0.10167022179387458,0.09254121741632346,0.08710942948007991,0.11597620977120396,0.11730448316631512,0.09940193748459465,0.12815594033195743,0.14485975218252795,0.15571069949339655,0.14016036331885873,0.1802170406345566,0.19791801118943855,0.22194558203969048,0.22610914946893765,0.24456380962064578,0.28756794793783624,0.3031825218676404,0.3169975072417475,0.3323776308111239,0.3804250425962702,0.3913262887728477,0.40459541572204855,0.4498444015247634,0.4986835206346805,0.5131636736536535,0.5285180594794843,0.5889177933509828,0.6416481967715807,0.6718863497030044,0.7026122853028709,0.7558352997682862,0.7936251899587239,0.8233557553756468,0.8691901274191063,0.9132276240142371,0.9497611250661444,0.9389105596898929,0.9801439289779,0.9627620117154195,0.9513084159573367,0.9169556620040874,0.854608654481562,0.7771876910084142,0.7236767464615164,0.6481155433770353,0.6209000444890478,0.5927867572991636,0.5661836782691587,0.552423135511597,0.584476137251928,0.6121407002080052,0.6728122903019121,0.7197005667236811,0.797135045341406,0.8328699941505319,0.9113074880689506,0.9358853379362491,0.9370466471975543,0.9508733322193305,1.0,0.9664636633243742,0.9628795603585412,0.9451527874963744,0.957580726788956,0.9240664401032357,0.8933249878543282,0.8694772904094521,0.8326319247967999,0.8187647316253522,0.7842503379198309,0.7484949680574521,0.7410152756061881,0.7013842542660983,0.690093544407867,0.6442996124397123,0.6164094555219448,0.5945334522128912,0.5448942101457738,0.5305914780802556,0.48642243437431665,0.4509562568580867,0.4199136921721916,0.36043353151668406,0.33443451789115297,0.3070470975674289,0.27639083885096816,0.2613254451444078,0.209612782171295,0.19007425301983807,0.20133630933713828,0.18584868157115114],
        [0.28837203592001037,0.2407974841659345,0.1785044796442932,0.18028491126928853,0.13093565893862166,0.11070928611289402,0.0926246727753528,0.11922330586759058,0.12113827185457261,0.09438931583201021,0.11751721259902301,0.11128396373918907,0.11440785429849908,0.14337113346558986,0.1691417947097941,0.1710294927012864,0.2245029019173941,0.2343601133878772,0.2478340646028515,0.2895269170073242,0.3245394185934376,0.3300444857360556,0.3727165495738826,0.3866744499381698,0.4365138220220684,0.4540421517013932,0.4617790676516632,0.4729218493017771,0.5274756233811393,0.5333756090689626,0.5563606257471916,0.6187025991801071,0.6482869214182275,0.6426242245107012,0.6708700110724366,0.691798650438834,0.7319319447942101,0.7771447000807202,0.7958428367412308,0.825767366960104,0.8180879640088518,0.8548988852248307,0.8713323069308927,0.8433997751314246,0.8527093646221028,0.8213224458624975,0.790599721398911,0.7907507096339514,0.7323104967162362,0.6929214522532701,0.6820112737162706,0.6698105712643581,0.6801842105834673,0.6996749073142952,0.7164774946862185,0.7532743799771418,0.7709798595990117,0.8229696629562757,0.8463092375469561,0.874672501917531,0.9213132742970868,0.961822894184298,0.9611750571607605,0.9983056327663518,1.0,0.9727598144449887,0.9730886130318425,0.9850121785407937,0.9456854618568519,0.9331158292454705,0.9149597883977241,0.9150638618690895,0.8601689605405426,0.8404487356507261,0.8410895113585385,0.8107429297990061,0.7980832119946061,0.7577270144777819,0.7608888382523347,0.7275303153674949,0.6683951415386475,0.6699657321374459,0.6465867832979517,0.6127506964337932,0.5703357501260035,0.5097799615590564,0.4966124093729572,0.45109369953808676,0.4499577783868618,0.4086865837006977,0.37576538987154107,0.35360501818076134,0.31902335949956406,0.29606908936291515,0.30449846601840314,0.2651685728013757],
        [0.19875341372804556,0.1462075875324399,0.14125917676293478,0.09267840737296475,0.08697155314218566,0.07202793939588525,0.07864622859362452,0.07574879874416607,0.04751267370777472,0.052860292986472754,0.09474784308032119,0.11410079080171494,0.11550763325304998,0.14481508614195032,0.14238555689135698,0.1736547840758392,0.19709742388242088,0.24304672036104544,0.253974326098103,0.2759053265514465,0.3131274711249997,0.35504029239732554,0.37651632268475593,0.39120722569481886,0.436431136503027,0.43730907501269867,0.46032251537589236,0.49621034145353066,0.5162399458662231,0.5383749682698564,0.5499950247782324,0.5883896143512417,0.6025617911438822,0.6329621869800913,0.6726423183840761,0.7073700429175221,0.7278085359987329,0.7404679086177726,0.7755794126571904,0.8071311233254338,0.8148195567565888,0.8287246602233825,0.8286453462490314,0.8543171716929807,0.8492612108395897,0.8075070817123017,0.7983516493275536,0.7575510210365864,0.7292837312159715,0.6797752107217431,0.6643186014010333,0.6288131765742202,0.605305836149612,0.6277072997320805,0.6390728126817037,0.6557984475796681,0.7147099458820598,0.7310078809902799,0.7567734895969687,0.8112344186972867,0.8511047513074018,0.9032160306488483,0.9300669670740002,0.9300616594637396,0.976700435467342,0.9676387713279619,0.9821880453636201,0.9770213564497832,0.9770617927369366,0.9989669070506108,1.0,0.9680976239252888,0.9634650919579688,0.9371265960474714,0.902868999472834,0.8828055872710929,0.8388156120840101,0.7771386502260379,0.7560003540620186,0.70745143595504,0.6491455831488373,0.5885521111331904,0.5466366016882802,0.5234762751225415,0.45442186727420725,0.4408570191306448,0.38604142318055135,0.3379271623959606,0.3064474395420857,0.2772675102413104,0.2664343949146543,0.2131955450727903,0.20457099620392016,0.21675477503003482,0.1993309398682164,0.23621023361713847],
        [0.2025496157283956,0.21467654799011612,0.17969069900752407,0.18815892302323708,0.22452248350242215,0.20763284470359716,0.20419254291361666,0.21354626832805337,0.17601429312097658,0.17172800009492162,0.2113448585358583,0.20238120468474777,0.19661366668942298,0.16888566166245458,0.18318437195601203,0.20519527004441104,0.2081527085000165,0.17191179085179725,0.2126207504766172,0.18922829895269827,0.24588684440267497,0.23642486635861062,0.2802251871379865,0.27475167235796405,0.2956276787688716,0.32325433547453186,0.3705855086125944,0.3775924204950024,0.4399202013911907,0.4618797004050944,0.5144903588580163,0.5521242612437549,0.5541366070512187,0.6273997681464903,0.6261269869407318,0.665196358508596,0.7463919823093423,0.7872456206892477,0.789127203983661,0.8373181865248343,0.8694685657598656,0.9088135763123726,0.9127338028254499,0.9232468448252855,0.9021173992671642,0.8883021712330024,0.8609108731754596,0.8232804822770982,0.7498337461716332,0.7146894554187697,0.6916149781497501,0.6515544395871904,0.6515052825029324,0.6520540952320757,0.6891741411891833,0.697177536470495,0.7350148712730903,0.7798418581921355,0.7991172547218852,0.8184203999319513,0.8672620281496103,0.9220532088078897,0.9517667845072649,0.9477723206852464,0.9608759884197965,1.0,0.9806299628006957,0.9959982526740406,0.9770021414244118,0.96244255661405,0.9702372543185598,0.9751851878038014,0.9441063578077306,0.9050018761381812,0.9023220695609853,0.8793588816065314,0.8297768210513202,0.8083665447742847,0.7794304585779592,0.7194974269332389,0.7169379427302682,0.6537112260603029,0.6357435519481087,0.5578052726802197,0.5278700269126726,0.47040426540340935,0.4204825835625722,0.38841263707677814,0.3546486329997318,0.3162425506450925,0.2988873996308649,0.2522431929438654,0.21055311962387016,0.20579539505372366,0.16307612641684568,0.12799787347968272],
        [0.14016153322436178,0.09330943966218991,0.06832099842309325,0.03196438341145561,0.04911235715479663,0.015843559501240553,0.027752846356550964,0.0032170867580502555,0.044058324288194686,0.025097249422694725,0.030296198565761975,0.059859069168809294,0.1064785101777183,0.09940171841774834,0.13380026007973836,0.15492515216705693,0.17641184381596187,0.23133736355799017,0.2525743305621579,0.27846948838265445,0.2945183668033536,0.3330610642324907,0.3415416061820498,0.3658738557083853,0.3909028157769674,0.4034112698436941,0.45769165867976414,0.4531705549218371,0.47608199848912597,0.5048221880269027,0.5582120705532433,0.5859848104060446,0.6029164629652172,0.6189921370373653,0.6980885364106808,0.7007351025239426,0.775181619063134,0.817891814936193,0.871102763033497,0.9078990064051764,0.9273245369383308,0.9537445961286112,0.9800066417795238,0.9783808553945537,0.9904381899044732,0.9662368871192707,0.9147756710876136,0.8412644477724482,0.7766258318178864,0.7424746665757533,0.6842933475123166,0.6296472613676188,0.608786073327263,0.6065559836602832,0.6173892496851777,0.6309207626754766,0.6835636956985148,0.6812365196004029,0.7507995405984412,0.8057802037470544,0.818327912195587,0.8550553867386814,0.9119535227995784,0.9276469169432167,0.9726667430286832,0.9726854767708256,1.0,0.9674339955776134,0.9759734001820249,0.9963100000460241,0.9763131817071916,0.981207456669039,0.9444213227364825,0.9327443585620302,0.8975231161952028,0.8453301682877705,0.8360052853300929,0.7976644446130885,0.7324436870568616,0.71214375480204,0.6624475160936588,0.628940257688049,0.5894921820523601,0.5388282794411579,0.5057608149248897,0.46862020096758356,0.4407593539164097,0.43887917382965075,0.37334972330642335,0.3639354093593916,0.3548192758888088,0.3007555583475671,0.28526487151530167,0.28842798001029585,0.26852934251900534,0.25094695924704785],
        [0.1501273615701119,0.1609931084171954,0.13380746583837452,0.13271656362433354,0.14489780471637537,0.14047821324949397,0.1295632512129792,0.12997383272104943,0.14719697252780295,0.16313561210454774,0.1683169625602642,0.18226401649652527,0.16536810908134664,0.17339597454406105,0.1661696015842701,0.20848407528542645,0.210956713525104,0.226370963701806,0.2254737804071363,0.25517752176952324,0.23171523463664825,0.24796559292850923,0.27185254340446824,0.27438864603243573,0.28956445108123174,0.324808449218085,0.327901644205375,0.3627118070626455,0.3945411639186255,0.4114488992712073,0.4110830797706397,0.42908839814551814,0.4897284016493625,0.519561714208683,0.5247910610718272,0.5604515299102953,0.5822678750242669,0.641390512458042,0.6668346643387352,0.717772300929556,0.7412032508343268,0.747224627079349,0.7794900935650421,0.8102945871654054,0.8067081627509953,0.7941301524105135,0.776134418183801,0.747770543962466,0.7206782222226203,0.6916161446684989,0.6633879730674317,0.6543099299883898,0.6305428873604876,0.6387369148096103,0.6506919076930129,0.6667679192227293,0.7018430156811892,0.7264001963131487,0.775096702894312,0.8160762914288882,0.8409677096037722,0.8794916944439897,0.9100801500746848,0.9342597729330413,0.9595344374524523,0.9666027214181871,1.0,0.9885486497273649,0.9777442375656353,0.9881941544529524,0.9563641097088805,0.9290928286933824,0.9034044027461964,0.8762444758977538,0.8434442509703121,0.7928279328102542,0.7155686452101917,0.6937036778005143,0.6217765333225793,0.5833734244199211,0.5081970813657471,0.47762223067843346,0.4219035945117576,0.41726648731204335,0.35947542773406416,0.35027729125994506,0.3092805849179328,0.28203921967509177,0.2956757825399465,0.26719989941475475,0.2670216620903818,0.23444601490059935,0.24893221599909124,0.24945895924114997,0.22596655782251537,0.24696958665386864],
        [0.2033826392811657,0.16771545351732864,0.11265138618592502,0.09122286380643435,0.08496237787108345,0.06201815829038274,0.06357400923493067,0.055185438260017365,0.06820864716196566,0.07667720206447126,0.08649618512580819,0.08820525885534866,0.10333852381338672,0.11399427686519158,0.1157767157326963,0.14820331326767805,0.16054450132214565,0.19918784401432144,0.23975231189726734,0.2524069492030731,0.2784756582176266,0.28001966757253244,0.3043564845627396,0.32086132713648474,0.36954404044638184,0.36588020587628134,0.397455206263633,0.39955599734212116,0.4187356650789968,0.44829647793608424,0.4682034078072835,0.48935593259991783,0.5227077727509878,0.5335954397840686,0.5764277349232887,0.5730426630337074,0.6092096205675533,0.6512393882387892,0.67629997555772,0.6828919515886921,0.7209404321322709,0.7366798798807016,0.7667323149381957,0.7563277860843894,0.7824995677387249,0.7695263746599714,0.7509050946019089,0.7555707118419479,0.7145018689556651,0.6948659197836451,0.6724230901832439,0.6945627229627124,0.6711356429786377,0.671044244837048,0.6596303179765932,0.6705510935080501,0.6962559053739827,0.7243919725289938,0.7561145174057895,0.774381676764473,0.8169940848376736,0.827822169784393,0.8433022500499546,0.8894116884659464,0.9028972538425548,0.9380218693823636,0.9874585331927553,0.9992544082183973,0.9849402261648484,0.9961003449233365,0.9963825797582663,1.0,0.9498169040206625,0.9207375623893563,0.8864116369096452,0.8637764880665416,0.8061883256443145,0.7730714215183306,0.6972582756229299,0.6547765522604628,0.6157455064577219,0.5652411267012022,0.5162601333872139,0.47380572172073454,0.45785196636790354,0.41180301055662993,0.41824379662509303,0.3764331289994404,0.3374771003189006,0.33761472690665306,0.2894587292781305,0.2951205678346414,0.25907730698069853,0.221587898332559,0.19220225085687226,0.20490367404688856],
        [0.17771876874857828,0.15371509676964318,0.1818990061387075,0.16566744660342636,0.1521592403113739,0.17556479456320362,0.16301789311782364,0.17476929594849794,0.17556032389045262,0.1949382369432844,0.19299861283468364,0.1872624571448582,0.20077604497332904,0.22249202196059575,0.24537960256609226,0.22484560730869768,0.26281471706109,0.2560773016207839,0.2913190638268023,0.3169599011984318,0.3086417835241951,0.3377699921978439,0.3684457643960776,0.36375020826778987,0.3841389445661951,0.4379722438156697,0.45298074567523244,0.47975102911307227,0.5105501350857922,0.5255595927619,0.5524989473325173,0.5858068081452127,0.6244426655835924,0.6443310356393305,0.6670225427193706,0.7052800858716796,0.7783468621527233,0.7794190285327388,0.8454372190526681,0.8902755935704061,0.8856792236261002,0.9311973410365525,0.9236369765857634,0.9173422306345068,0.923385689327489,0.8889394632064646,0.8153597122515922,0.7687962231832539,0.6882357762300636,0.6542161775032402,0.6056133174119093,0.5420808775892278,0.5332616461491289,0.5408897294170865,0.522187690994758,0.5892758632691542,0.6208711378762313,0.6651869592807799,0.7243355261509362,0.7914847305243161,0.838074254254258,0.8728422905274171,0.9089298131183733,0.9556430650674059,0.9506733124781339,0.961178925295702,0.9952738642057561,1.0,0.9923170370410633,0.9718565353423294,0.9601256672923132,0.9552183016387311,0.9177401945893514,0.8994110280442976,0.860688460906749,0.8330246520723678,0.7835873613687935,0.7425429732204717,0.723763353997327,0.667541432138863,0.6194384280844046,0.6043275528490987,0.5450360519306627,0.4938818906692268,0.48045758897280216,0.4259838463132106,0.40275008418335145,0.3718293895268232,0.35450067351420933,0.2930933343886015,0.2699337005685513,0.2723248547962256,0.2415077860776078,0.21122711721851886,0.20701236330442407,0.18074114723052032],
        [0.16912374290729235,0.174096435302565,0.16199379029776154,0.12609576406584577,0.08851404849079957,0.07865970609204778,0.08487811423374482,0.0862913707015358,0.07087229811983649,0.1144002017319023,0.10531796735936377,0.14025427128300666,0.14838421998779044,0.1462649862702125,0.1694526916217923,0.17422792074260138,0.1942512175287515,0.2080370768736615,0.24971363249984793,0.25178525177117744,0.29226085380462347,0.31047980782673373,0.3561313236854123,0.36181818978454344,0.4104028359917722,0.40289927239430373,0.4624039088183144,0.4729701010524202,0.4778412204392567,0.5224716685912663,0.53949844940977,0.5899914710413939,0.6146943918766887,0.6176921563297303,0.664762788871956,0.7179864994932228,0.7286707168002324,0.7773935140128901,0.7810184279006581,0.8454057280542059,0.8540818326697551,0.8935595114498823,0.8857121505136752,0.8973426294410318,0.8958688518669484,0.8612794432276493,0.8208605462848048,0.7713890071442981,0.7139520474754664,0.6900993754962729,0.651922112332428,0.6415616513502804,0.5950354909039441,0.6172320263989574,0.5947309414651185,0.6540781817582805,0.6728225967565179,0.6962958903139529,0.7274626494195363,0.7634046021955999,0.820416491072016,0.8479976815108354,0.895350634454338,0.9312929380352889,0.9279133339669063,0.9648137955531085,0.9709622314992258,0.965853339658853,1.0,0.9918161724698369,0.9744325047001386,0.9892559027413377,0.9606305248765358,0.9689620453371335,0.9431748567800946,0.9162423007093333,0.9061731704538734,0.8694397323834094,0.8238577717757734,0.7761164257111032,0.7164521685344352,0.6576033996375461,0.6129766245954158,0.571286865594807,0.5145161932723322,0.4812187572568118,0.4308409940504884,0.37797696070461256,0.35407528399819405,0.31258463643935025,0.2776322857457053,0.24244463242520353,0.20189588084823343,0.20813998470817358,0.20907193839184066,0.2143692677930066],
        [0.24681060324291473,0.2675927880033123,0.24921341941712347,0.21789581824873308,0.23454219451965552,0.2379139671594838,0.22463437156547567,0.1926993366391401,0.2109480867256402,0.2047139696562406,0.20279032280888237,0.2081814138523062,0.187358302951353,0.19092973435849045,0.1875279608198238,0.20317807933580997,0.20798024179352984,0.20308903169368714,0.22081398094234958,0.22898836910700338,0.2631195542771975,0.2659338312478403,0.2924342451259523,0.3359678675571642,0.35033282043279956,0.37453259821062185,0.42033494589571746,0.4280752861875764,0.4770735656441065,0.4951528820162936,0.5194497179434008,0.5488997040780207,0.6045198407921791,0.622292309129504,0.6408174774514918,0.6833643352332776,0.7025086548587064,0.7315355758074638,0.7540680020333008,0.801541651823676,0.8246220747717987,0.8186751672608862,0.8285611963846059,0.8427136801728089,0.7983595774056392,0.7900761495265429,0.7596172525023682,0.735431368722056,0.7143892154809066,0.6437497597996629,0.6472999867706692,0.6122491905597757,0.6008527687553075,0.6162500109356868,0.592487258455568,0.6194009465311959,0.6456028398089173,0.6894232648328319,0.731491633749324,0.7768264100357886,0.7872079489765881,0.8398670071733784,0.8950876113898095,0.9065494470655844,0.9486673748830743,0.9416820746803997,0.9670750701629716,0.9983383041953364,1.0,0.9924268730117921,0.9948262648386365,0.9843889201847377,0.9668230582911446,0.9162986600988844,0.8866041849942042,0.8320766194063764,0.808021682148365,0.740258062862986,0.6882272766820908,0.663047651919804,0.5792774194974708,0.5536216787451523,0.5399177162274527,0.4925685053342835,0.4607410217685932,0.4464338034205937,0.4168833354431487,0.3939929248043567,0.3732158146092477,0.3582452227035782,0.3677314083247422,0.35310545512046465,0.3003513476334524,0.30999023098675943,0.28822062587845665,0.26684259037683605],
        [0.19107078930500612,0.16369696633655495,0.11745802586320866,0.0917443203755385,0.08697072956514244,0.047580063744696456,0.05193817133156998,0.05671106920275028,0.05527485677807176,0.036526933637469616,0.037259127928823105,0.05838085947240621,0.06924732289515327,0.08079332546905939,0.11195213916939564,0.14245884341609744,0.17079861204155294,0.18367667795401663,0.2011350833270928,0.240726280633628,0.27257933126998307,0.2939848381909814,0.32383576040186984,0.3225038316140255,0.35506330882858966,0.37733421396726685,0.39366281365206535,0.4322023584352762,0.43394852905906117,0.4865636313234654,0.4814373952288973,0.523372248884946,0.5613823591599486,0.5846477312174215,0.626732676717139,0.6362429711435428,0.7071076892122966,0.71393086892326,0.7618043286294605,0.7992291327678404,0.8205328718442626,0.8500256640520948,0.8981611775834716,0.9009546916253893,0.8917575508646725,0.8673326536656034,0.8080118601227334,0.7752960654374113,0.7178895074735717,0.6751135937548194,0.6337810425819479,0.6086118311637484,0.5837719593075378,0.5788660432537093,0.5991372189893401,0.6443987883753108,0.6457714238396696,0.7219428141068437,0.7507591475222322,0.8028540099198055,0.8367630884470918,0.8804211246278257,0.895703154079169,0.9241106209010662,0.9659917568807544,0.9817739631405054,0.9936383148904274,0.9883401459006351,0.9921704706006934,1.0,0.981833742429665,0.9843378191986171,0.939505751325722,0.8984275435620646,0.8768527684925653,0.794058804609925,0.7505654876568862,0.7013339886162154,0.670095444619937,0.6166339586761332,0.5516660575989196,0.5339143936391277,0.46471809363411853,0.4504189902094912,0.42860195227927056,0.38902294200076953,0.3556515889976234,0.34135679996604096,0.3294221280274998,0.301557371406487,0.2838709072071006,0.2477557922256251,0.21965964822066944,0.22744758591856984,0.16397841076499511,0.13797574158074769],
        [0.11475056980264046,0.1568231328340438,0.16673016217145986,0.174980902968528,0.2088332709544475,0.2000820167213493,0.18589931616974856,0.19780626315645888,0.17856601933153407,0.20269720861710547,0.18311230486151034,0.17217043069965834,0.16840647607371598,0.1594315250928235,0.18875296864966348,0.1862398746514028,0.1776406788788409,0.17401941121096287,0.18402114933550473,0.21391456727314198,0.19601100856110107,0.20958494989527193,0.2383087848341887,0.27531870033528577,0.2818730439360128,0.31614660809052214,0.3731827508047329,0.3976935563404803,0.4546677773847391,0.4909323279229823,0.5037678464982162,0.5474325875153564,0.6094356211527867,0.6353846969969196,0.6662874230191284,0.7227415472336634,0.7655937611240725,0.7914880712802828,0.8065809643237776,0.8594138834738898,0.8656931951964628,0.8920302043127332,0.8890792655646971,0.9026310051328975,0.8494097080773095,0.8225390225598025,0.7838627530527978,0.739006938650463,0.6921228961873085,0.6438640031077256,0.6278672827753091,0.5811480662843537,0.5696133929661458,0.573702740818881,0.6033422622136713,0.6600062191766211,0.6783706424716511,0.723656809462884,0.7644734133655114,0.8249866463351092,0.8641850795260098,0.9225467290082896,0.9246798569889891,0.9474308467336144,0.9673829553473069,0.975568322114461,1.0,0.9934253546756626,0.9749048572240158,0.9481089833685824,0.9297232841273093,0.916961513780866,0.8950902682919893,0.8490277069385405,0.8196167711151001,0.798002818668396,0.7490354458017286,0.7035781931711331,0.642698152685353,0.604575512751348,0.5631100952243875,0.5383372823971929,0.47597000508935694,0.43268660258738656,0.40783677981085353,0.3861003943113856,0.35101156463220184,0.3238337059361706,0.2918064519736916,0.2639020907572942,0.2381513836825124,0.21058638329662258,0.21391138019328296,0.21040994832464496,0.18862888869992894,0.21189261921185293],
        [0.11234134474882408,0.09473499786228542,0.08508574023798256,0.07991394531097269,0.0979840337151406,0.061011058871605586,0.07870686240275522,0.07291780252449705,0.12580885894146981,0.0972587855008983,0.12918455786176436,0.14728367124812075,0.18255424642488025,0.18021705179329045,0.22784851212707563,0.21946134997116584,0.29202331028780193,0.2810568602384653,0.33089381478716434,0.3479567097796629,0.39066526016315584,0.43796483466387204,0.4478033254922457,0.4897587068255273,0.5438253030002074,0.5867815716081854,0.6089698409094765,0.639628581182787,0.6527311897272818,0.6871057857098912,0.7585017740499096,0.7417276283117367,0.7941530376435376,0.8345799874066483,0.8328890393907231,0.8682536994281014,0.8907066945756935,0.8975518821984183,0.9433572678122424,0.9577570885789023,0.9575504273815872,0.9254913516328968,0.9558794028474377,0.9313844945093389,0.9228575070407533,0.9031705114225815,0.902608728204255,0.8742581384519144,0.8387225891380473,0.8526410406048899,0.7983702255931763,0.8085542630059751,0.7605456999290036,0.7639999276526727,0.7969594958958931,0.789934352977978,0.8064106264358432,0.8101088518961659,0.8271889002225313,0.83012893065754,0.8510849873234487,0.9062795027962262,0.9013078590151706,0.9187548849488428,0.9437146564618013,0.925484995206659,0.9629407078872708,0.9900597079178545,0.9743520024936617,0.9786576212178653,0.9821314073248248,1.0,0.9824047084422044,0.979740097195797,0.9650975157916835,0.9154535513916591,0.9406818479015773,0.9037846889809898,0.8708500236403843,0.8148354484664961,0.8252332293755091,0.768029736495558,0.7522584103333038,0.6885156573109454,0.6551043103597818,0.6280383273121646,0.5630414898686996,0.5047238974402035,0.471849375483028,0.4246167457863467,0.39685583952831743,0.35780132901976963,0.27335088182893746,0.25455767982299454,0.20221668772937962,0.15773488161470875],
        [0.2842582976676692,0.2648845664276223,0.2407137845995182,0.22019979007947887,0.2142462009491217,0.20226616806473552,0.1757474983615897,0.16152385800480637,0.16703395317024877,0.15023642363857231,0.1473283031001261,0.12628655513370243,0.1525307604479114,0.12486236872244806,0.15491807852882947,0.135556621182584,0.13922504436352467,0.1658301999168991,0.1927401127294236,0.1819303204920292,0.217135408003461,0.2015474673919113,0.24242413815677807,0.2741550868584476,0.2877323710988541,0.3060676707870619,0.3320165611364449,0.3805121034781113,0.4299187409007503,0.4760614218403152,0.4901828703576417,0.520651028442372,0.5612971215437802,0.5893875335232255,0.6440777453544171,0.691175143160722,0.7305046365430679,0.7433160412718458,0.8067088186716247,0.8408351959147196,0.8606279233576354,0.8985164411410714,0.8782732683965438,0.901171603303615,0.8560512258129752,0.8292309289782556,0.7849884183251615,0.765360605220162,0.7099934777310076,0.6454579992415614,0.598362068042219,0.5488656752713401,0.5588915748840219,0.5681439844890588,0.5738714787270617,0.5769885432568193,0.6146023348414114,0.6644954049142924,0.7108603451927428,0.7513008197820905,0.821173418464312,0.8623674582933879,0.8952865849249851,0.8963487465875166,0.9611290651401659,0.9565318339731546,0.9579059992979128,0.9927832957535769,1.0,0.9940465922614311,0.9727965970720153,0.9773702783190631,0.9337859014378552,0.9132714609310575,0.8961756610774733,0.8504883896678519,0.7834572753502569,0.7715507154379393,0.7359067845394813,0.6931506550902492,0.6415637902360102,0.6236522130467631,0.5622839121447427,0.5435586674576725,0.5457004737428898,0.48794243828965594,0.4818218708380928,0.48063570404195666,0.4416881826846032,0.4041802682512001,0.3966940701581201,0.38276927999178795,0.33662897679414105,0.3301986096378367,0.2959951860247324,0.2226296776202179],
        [0.1845153626560953,0.2408546945824546,0.2240944933784253,0.25582437324654606,0.2549842878809537,0.23159139152271652,0.26001046539887807,0.22942997868892973,0.24499631745194458,0.22352712008594736,0.22269771967980578,0.23232304865314363,0.1938394839719439,0.1888349354509752,0.1831150369264303,0.18332595581096994,0.19194364736187744,0.2045284801155017,0.2150484012854535,0.1886589084100288,0.23049797302034858,0.24875766960319512,0.27483816605154604,0.31341488877086876,0.35358667194481264,0.382021518204064,0.39579116626462246,0.4722033246150777,0.511168050177215,0.5297882100060537,0.5660276427361514,0.6404057009930576,0.6910694677307102,0.6948960959684629,0.7579631450789934,0.7665374118221637,0.8017557817503946,0.8655703209674231,0.8929929230071872,0.8933000968619328,0.9131685150669836,0.9371476476106417,0.9429099625490576,0.9116791632967586,0.9208126369728509,0.8729277976281019,0.8556745828026989,0.8356776259532989,0.8007413955693854,0.760249207077359,0.7390671821742123,0.6889624863642475,0.6857399811139471,0.6791913508055468,0.6793859056675681,0.699072355832006,0.7484672862330662,0.7749838847293589,0.7866362260585315,0.8136069758546149,0.84145482154755,0.8905916782157371,0.914535104602227,0.9044472981229894,0.9184106203236543,0.9328764526327622,0.9592934874654987,0.9711997798198294,0.968926755855655,1.0,0.9928928829792304,0.9805888686849726,0.9557546905632075,0.9553481728645739,0.9351048342453566,0.9059960003607116,0.8486619530353418,0.8440853677252463,0.7884921247288926,0.7452766058392585,0.7402567023144329,0.7115194493650607,0.688660167838837,0.6357984988444692,0.5953445088736385,0.556598356159622,0.5409931313163763,0.5161878273063657,0.4790601676960783,0.4288965774661666,0.4007790640192754,0.3851990792918751,0.32192262665338767,0.27818979421132883,0.2266614657653371,0.16902995258896847],
        [0.29202522469638287,0.24596918897613945,0.20763886210823607,0.15760229550547972,0.14572911359883772,0.10619999398234205,0.11194160954673875,0.10285417078823543,0.08042333920119485,0.07552150636884875,0.07978319668785028,0.07263744598410227,0.07541661862352296,0.10052904496300229,0.13304509484764726,0.14669168229050117,0.1741093867342101,0.18001405043684246,0.19055219042299165,0.23414506484706954,0.24104355048288922,0.2869370649165194,0.30701563520358083,0.36571095516075436,0.36644984143897313,0.4137070926828529,0.44265567397257183,0.49575487636795496,0.5169332521923264,0.5467535906561165,0.5855537538320282,0.6032299947767468,0.6488844796228516,0.6742233239736417,0.6960152665632529,0.7570878043741319,0.769232530159976,0.7953673981362652,0.8109204640728699,0.8368732529952395,0.866032117440892,0.8837148267480052,0.9072635048473687,0.8926093502846387,0.9016721141610838,0.8735699096968451,0.8367956568695515,0.797168944706639,0.7571817245889543,0.7412449561138036,0.7133835822647714,0.6889746088775264,0.6944675550386215,0.661530286938225,0.6700625598167665,0.691170306073489,0.7257721390627516,0.7621475886716482,0.7999699740824016,0.8037320139073431,0.8283634066981345,0.873352906304306,0.890140072376746,0.9427300195451428,0.9217529219204869,0.9448177375261,0.9821147101164754,0.9754098478221827,0.9881603200096661,1.0,0.9899804691281866,0.9789329168161555,0.9690621808362367,0.9240127160942944,0.9022218458258456,0.8964042810462648,0.8538423772300954,0.844734860547206,0.7971289281521643,0.7581666721061984,0.6791491475906548,0.6487842023294873,0.5715081660314498,0.5497780807910165,0.46771066549397905,0.44418219731485103,0.3756740380430042,0.34686584811894655,0.2924531372062327,0.246161174573948,0.24601233321510488,0.2145021902589133,0.2137548875791713,0.1818647509989023,0.2100527914619795,0.20892356520476707],
...